CRYSTAL
PRIMVEC
7.06758 0.0000000000 0.0000000000 
0.0000000000 4.81000 0.0000000000 
0.0000000000  0.0000000000 40.76894
PRIMCOORD
76 1 
O 6.991447240429737 1.337440144999995 14.428236921937344 #3
O 5.989264185860966 3.5462799275000023 13.639596623668588 #1
Al 4.546253509343598 0.40500000000000114 10.799550991529866 #1
Al 6.685227887493655 2.8100000000000023 10.326723707507174 #1
Al 4.28518431143894 2.8100000000000023 13.37663506434351 #1
Al 6.4241586895889835 0.40500000000000114 12.903807780320836 #1
O 4.981148013071623 2.0737200725000093 10.063762148182093 #1
O 2.7157127060294215 1.1412799275000083 11.063565624458239 #1
O 4.720078815166961 1.1412799275000083 12.640846220995744 #1
O 6.250333383765635 4.4787200725000105 11.06251255085494 #1
O 3.7178957605981937 3.7424401450000033 11.852205922726991 #1
Al 1.0116328316073897 0.40500000000000114 10.800604065133154 #1
Al 3.1506072097574336 2.8100000000000023 10.327776781110483 #1
O 1.4465273353354107 3.5462799275000094 10.06481522178539 #1
Al 5.9020202937796515 0.40500000000000114 18.057975925948153 #3
O 6.730378042525068 1.8775598550000012 17.005320994751006 #3
Al 6.163089491684321 2.8100000000000023 15.48089185313449 #3
Al 3.763045915629597 2.8100000000000023 18.530803209970838 #3
O 5.728194987956295 4.478720072499996 16.21668069648225 #3
O 5.467125790051631 3.546279927499995 18.793764769295915 #3
O 4.197940419357618 1.1412799275000083 17.795014366623068 #3
O 1.9325051123154093 2.0737200725000093 18.794817842899224 #3
Al 4.024115113534268 0.40500000000000824 15.953719137157172 #3
Al 2.8895380118527774 0.40500000000000824 12.904860853924138 #1
Al 0.22842523789338287 2.8100000000000094 18.53185628357415 #3
Al 2.3673996160434356 0.40500000000000824 18.059028999551465 #3
Al 0.4894944357980533 0.40500000000000824 15.954772210760485 #3
Al 2.628468813948107 2.8100000000000094 15.4819449267378 #3
O 4.459009617262289 2.0737200725000022 15.217930293809406 #3
O 2.454643508124751 2.0737200725000022 13.6406496972719 #1
O 3.4568265626935233 4.2825598550000095 14.429289995540657 #3
O 3.195757364788852 3.7424401450000104 17.00637406835432 #3
O 2.193574310220086 1.1412799275000012 16.217733770085566 #3
O 0.6633197416214038 4.478720072500018 17.79606744022638 #3
O 0.9243889395260743 3.5462799275000165 15.218983367412719 #3
O 0.18327508286197336 1.8775598550000083 11.8532589963303 #1
Al 0.7505636337027184 2.8100000000000094 13.37768813794682 #1
O 1.1854581374307394 4.478720072500003 12.641899294599053 #1
O 3.4576571288879894 3.7424401163897656 26.340703049986484 #3
O 2.455474074319218 1.1412799561102318 27.12934334825524 #2
Al 1.0124633978018487 2.8099999713897716 29.969388980393962 #2
Al 3.1514377759519068 0.40500002861023177 30.442216264416654 #2
Al 0.7513941998971916 0.40500002861023177 27.392304907580318 #2
Al 2.8903685780472355 2.8099999713897716 27.865132191602992 #2
O 1.447357901529875 4.47872004388978 30.705177823741735 #2
O 6.2495028175711695 3.546279898889779 29.70537434746559 #2
O 1.1862887036252125 3.546279898889779 28.128093750928084 #2
O 2.7165432722238876 2.07372010111024 29.706427421068888 #2
O 0.18410564905644566 1.3374401736102328 28.916734049196837 #2
Al 4.545422943149138 2.8099999713897716 29.968335906790674 #2
Al 6.684397321299182 0.40500002861023177 30.441163190813345 #2
O 4.980317446877159 1.141279956110239 30.70412475013844 #2
Al 2.3682301822379035 2.8099999713897716 22.710964045975675 #3
O 3.19658793098332 4.282559826389772 23.763618977172822 #3
Al 2.629299380142573 0.40500002861023177 25.288048118789337 #3
Al 0.22925580408784896 0.40500002861023177 22.23813676195299 #3
O 2.1944048764145467 2.0737201011102258 24.55225927544158 #3
O 1.9333356785098825 1.1412799561102247 21.975175202627913 #3
O 0.6641503078158699 3.546279898889779 22.97392560530076 #3
O 5.466295223857157 4.47872004388978 21.974122129024604 #3
Al 0.49032500199252027 2.8099999713897788 24.815220834766656 #3
Al 6.423328123394525 2.8099999713897788 27.86407911799969 #2
Al 3.762215349435131 0.40500002861023887 22.237083688349678 #3
Al 5.901189727585184 2.8099999713897788 22.709910972372363 #3
Al 4.023284547339801 2.8099999713897788 24.814167761163343 #3
Al 6.162258925489855 0.40500002861023887 25.28699504518603 #3
O 0.9252195057205412 4.478720043889773 25.551009678114422 #3
O 5.988433619666499 4.478720043889773 27.128290274651928 #2
O 6.990616674235271 1.877559883610239 26.33964997638317 #3
O 6.7295474763306 1.33744017361024 23.76256590356951 #3
O 5.727364421761834 3.5462798988897717 24.551206201838262 #3
O 4.197109853163152 2.073720101110247 22.972872531697448 #3
O 4.458179051067822 1.141279956110246 25.54995660451111 #3
O 3.7170651944037214 4.282559826389779 28.915680975593528 #2
Al 4.284353745244466 0.40500002861023887 27.39125183397701 #2
O 4.719248248972487 2.073720101110233 28.127040677324775 #2
